powerfulcases/cases/synthetic/case_ACTIVSg200/case_ACTIVSg200.raw
0, 100, 33, 0, 0, 60  / 28-Jan-2026 21:53:46 - MATPOWER 8.1


     1, 'CREVE COEUR ',       115, 1,    1,    2, 1,   1.0191524,   -7.085196,  1.1,  0.9,  1.1,  0.9
     2, 'CREVE COEUR ',       115, 1,    1,    2, 1,   1.0190346,   -7.098018,  1.1,  0.9,  1.1,  0.9
     3, 'ILLIOPOLIS 0',       115, 1,    1,    4, 1,   1.0300537,  -10.029102,  1.1,  0.9,  1.1,  0.9
     4, 'ILLIOPOLIS 1',       115, 1,    1,    4, 1,   1.0300287,  -10.031977,  1.1,  0.9,  1.1,  0.9
     5, 'PAXTON 2 0  ',       115, 1,    1,    6, 1,   1.0372733,   -3.546274,  1.1,  0.9,  1.1,  0.9
     6, 'PAXTON 2 1  ',       115, 1,    1,    6, 1,   1.0371472,   -3.559563,  1.1,  0.9,  1.1,  0.9
     7, 'PEORIA 9 0  ',       115, 1,    1,    2, 1,   1.0130981,   -7.793195,  1.1,  0.9,  1.1,  0.9
     8, 'PEORIA 9 1  ',       115, 1,    1,    2, 1,   1.0127362,   -7.833073,  1.1,  0.9,  1.1,  0.9
     9, 'PEORIA 8 0  ',       115, 1,    1,    2, 1,   1.0157742,   -7.471766,  1.1,  0.9,  1.1,  0.9
    10, 'PEORIA 8 1  ',       115, 1,    1,    2, 1,   1.0150515,   -7.561889,  1.1,  0.9,  1.1,  0.9
    11, 'LOVINGTON 0 ',       115, 1,    1,    4, 1,   1.0464424,   -7.604683,  1.1,  0.9,  1.1,  0.9
    12, 'LOVINGTON 1 ',       115, 1,    1,    4, 1,    1.046438,    -7.60522,  1.1,  0.9,  1.1,  0.9
    13, 'LOVINGTON 2 ',       115, 1,    1,    4, 1,   1.0464027,   -7.609214,  1.1,  0.9,  1.1,  0.9
    14, 'DECATUR 3 0 ',       230, 1,    1,    4, 1,    1.044617,   -6.245575,  1.1,  0.9,  1.1,  0.9
    15, 'DECATUR 3 1 ',       115, 1,    1,    4, 1,   1.0491072,   -7.105388,  1.1,  0.9,  1.1,  0.9
    16, 'DECATUR 3 2 ',       115, 1,    1,    4, 1,    1.048481,   -7.176325,  1.1,  0.9,  1.1,  0.9
    17, 'MASON CITY 0',       115, 1,    1,    4, 1,   1.0247944,   -8.305174,  1.1,  0.9,  1.1,  0.9
    18, 'MASON CITY 1',       115, 1,    1,    4, 1,   1.0247831,   -8.306647,  1.1,  0.9,  1.1,  0.9
    19, 'MASON CITY 2',       115, 1,    1,    4, 1,   1.0247839,   -8.306404,  1.1,  0.9,  1.1,  0.9
    20, 'MASON CITY 3',       115, 1,    1,    4, 1,    1.024777,   -8.307127,  1.1,  0.9,  1.1,  0.9
    21, 'MASON CITY 4',       115, 1,    1,    4, 1,    1.024716,    -8.31463,  1.1,  0.9,  1.1,  0.9
    22, 'BETHANY 0   ',       115, 1,    1,    4, 1,   1.0446532,   -8.021549,  1.1,  0.9,  1.1,  0.9
    23, 'BETHANY 1   ',       115, 1,    1,    4, 1,   1.0446325,   -8.023805,  1.1,  0.9,  1.1,  0.9
    24, 'BETHANY 2   ',       115, 1,    1,    4, 1,   1.0446174,   -8.025162,  1.1,  0.9,  1.1,  0.9
    25, 'RANKIN 0    ',       115, 1,    1,    6, 1,   1.0425139,   -4.003351,  1.1,  0.9,  1.1,  0.9
    26, 'RANKIN 1    ',       115, 1,    1,    6, 1,   1.0424947,   -4.005417,  1.1,  0.9,  1.1,  0.9
    27, 'WINDSOR 0   ',       115, 1,    1,    4, 1,   1.0457273,   -7.975065,  1.1,  0.9,  1.1,  0.9
    28, 'WINDSOR 1   ',       115, 1,    1,    4, 1,    1.045689,   -7.979706,  1.1,  0.9,  1.1,  0.9
    29, 'PEKIN 2 0   ',       115, 1,    1,    2, 1,   1.0181686,   -7.054086,  1.1,  0.9,  1.1,  0.9
    30, 'PEKIN 2 1   ',       115, 1,    1,    2, 1,   1.0172458,   -7.149969,  1.1,  0.9,  1.1,  0.9
    31, 'HEYWORTH 0  ',       115, 1,    1,    7, 1,   1.0215416,   -5.832082,  1.1,  0.9,  1.1,  0.9
    32, 'HEYWORTH 1  ',       115, 1,    1,    7, 1,   1.0215327,   -5.833121,  1.1,  0.9,  1.1,  0.9
    33, 'HEYWORTH 2  ',       115, 1,    1,    7, 1,   1.0214429,   -5.844415,  1.1,  0.9,  1.1,  0.9
    34, 'DECATUR 2 0 ',       115, 1,    1,    4, 1,   1.0327185,   -9.326455,  1.1,  0.9,  1.1,  0.9
    35, 'DECATUR 2 1 ',       115, 1,    1,    4, 1,    1.032392,   -9.365615,  1.1,  0.9,  1.1,  0.9
    36, 'LINCOLN 0   ',       115, 1,    1,    7, 1,   1.0280697,   -6.178381,  1.1,  0.9,  1.1,  0.9
    37, 'LINCOLN 1   ',       115, 1,    1,    7, 1,   1.0280176,    -6.18452,  1.1,  0.9,  1.1,  0.9
    38, 'LINCOLN 2   ',       115, 1,    1,    7, 1,   1.0275847,    -6.23205,  1.1,  0.9,  1.1,  0.9
    39, 'SHERMAN 0   ',       115, 1,    1,    4, 1,    1.024585,  -10.493094,  1.1,  0.9,  1.1,  0.9
    40, 'SHERMAN 1   ',       115, 1,    1,    4, 1,   1.0245573,  -10.496396,  1.1,  0.9,  1.1,  0.9
    41, 'URBANA 2 0  ',       115, 1,    1,    5, 1,   1.0462799,    -7.96017,  1.1,  0.9,  1.1,  0.9
    42, 'SPRINGFIELD ',       115, 1,    1,    4, 1,   1.0301465,  -11.069993,  1.1,  0.9,  1.1,  0.9
    43, 'CARLOCK 0   ',       115, 1,    1,    2, 1,    1.017201,   -6.400585,  1.1,  0.9,  1.1,  0.9
    44, 'PLEASANT PLA',       115, 1,    1,    4, 1,   1.0280137,   -10.39886,  1.1,  0.9,  1.1,  0.9
    45, 'LE ROY 0    ',       230, 1,    1,    7, 1,   1.0384367,   -2.068677,  1.1,  0.9,  1.1,  0.9
    46, 'LE ROY 1    ',       115, 1,    1,    7, 1,   1.0378124,   -2.889424,  1.1,  0.9,  1.1,  0.9
    47, 'DECATUR 1 0 ',       115, 1,    1,    4, 1,   1.0392618,    -8.19532,  1.1,  0.9,  1.1,  0.9
    48, 'RANTOUL 2 0 ',       115, 1,    1,    6, 1,   1.0351468,    -4.17501,  1.1,  0.9,  1.1,  0.9
    49, 'RANTOUL 2 1 ',      13.8, 2,    1,    6, 1,        1.04,    -3.80269,  1.1,  0.9,  1.1,  0.9
    50, 'RANTOUL 2 2 ',      13.8, 2,    1,    6, 1,        1.04,   -3.896095,  1.1,  0.9,  1.1,  0.9
    51, 'RANTOUL 2 3 ',      13.8, 2,    1,    6, 1,        1.04,   -3.742621,  1.1,  0.9,  1.1,  0.9
    52, 'RANTOUL 2 4 ',      13.8, 2,    1,    6, 1,        1.04,   -3.914588,  1.1,  0.9,  1.1,  0.9
    53, 'RANTOUL 2 5 ',      13.8, 2,    1,    6, 1,        1.04,   -3.349326,  1.1,  0.9,  1.1,  0.9
    54, 'MACON 0     ',       115, 1,    1,    4, 1,   1.0375005,   -8.493516,  1.1,  0.9,  1.1,  0.9
    55, 'ELLSWORTH 2 ',       230, 1,    1,    7, 1,   1.0370718,   -2.298751,  1.1,  0.9,  1.1,  0.9
    56, 'ELLSWORTH 2 ',       115, 1,    1,    7, 1,   1.0364415,   -2.736582,  1.1,  0.9,  1.1,  0.9
    57, 'MOUNT PULASK',       115, 1,    1,    4, 1,   1.0281336,  -10.449132,  1.1,  0.9,  1.1,  0.9
    58, 'WAPELLA 0   ',       115, 1,    1,    7, 1,   1.0349414,   -6.030088,  1.1,  0.9,  1.1,  0.9
    59, 'ROANOKE 0   ',       115, 1,    1,    2, 1,   1.0187885,   -7.693149,  1.1,  0.9,  1.1,  0.9
    60, 'GREEN VALLEY',       115, 1,    1,    2, 1,   1.0291097,   -6.554687,  1.1,  0.9,  1.1,  0.9
    61, 'BLOOMINGTON ',       115, 1,    1,    7, 1,   1.0351527,   -3.102719,  1.1,  0.9,  1.1,  0.9
    62, 'SPRINGFIELD ',       115, 1,    1,    4, 1,   1.0267194,  -11.318015,  1.1,  0.9,  1.1,  0.9
    63, 'BEMENT 0    ',       115, 1,    1,    4, 1,   1.0437777,   -8.233032,  1.1,  0.9,  1.1,  0.9
    64, 'PAXTON 1 0  ',       115, 1,    1,    6, 1,   1.0415417,   -2.532761,  1.1,  0.9,  1.1,  0.9
    65, 'PAXTON 1 1  ',      13.8, 2,    1,    6, 1,        1.04,       2.119,  1.1,  0.9,  1.1,  0.9
    66, 'MOUNT ZION 0',       115, 1,    1,    4, 1,   1.0410702,   -7.846441,  1.1,  0.9,  1.1,  0.9
    67, 'MOUNT ZION 1',      13.8, 2,    1,    4, 1,   1.0405589,    -7.73215,  1.1,  0.9,  1.1,  0.9
    68, 'MOUNT ZION 2',      13.8, 2,    1,    4, 1,        1.04,   -6.669196,  1.1,  0.9,  1.1,  0.9
    69, 'MOUNT ZION 3',      13.8, 2,    1,    4, 1,        1.04,   -7.421629,  1.1,  0.9,  1.1,  0.9
    70, 'MOUNT ZION 4',      13.8, 2,    1,    4, 1,        1.04,   -6.959081,  1.1,  0.9,  1.1,  0.9
    71, 'MOUNT ZION 5',      13.8, 2,    1,    4, 1,        1.04,    -7.48165,  1.1,  0.9,  1.1,  0.9
    72, 'MOUNT ZION 6',      13.8, 2,    1,    4, 1,        1.04,   -7.512144,  1.1,  0.9,  1.1,  0.9
    73, 'MOUNT ZION 7',      13.8, 2,    1,    4, 1,        1.04,   -7.193069,  1.1,  0.9,  1.1,  0.9
    74, 'RANTOUL 1 0 ',       115, 1,    1,    6, 1,   1.0294816,    -5.12964,  1.1,  0.9,  1.1,  0.9
    75, 'BRIMFIELD 0 ',       115, 1,    1,    2, 1,    1.028977,   -6.116296,  1.1,  0.9,  1.1,  0.9
    76, 'BRIMFIELD 1 ',      13.8, 2,    1,    2, 1,        1.04,   -5.641354,  1.1,  0.9,  1.1,  0.9
    77, 'BRIMFIELD 2 ',      13.8, 2,    1,    2, 1,        1.04,   -5.292751,  1.1,  0.9,  1.1,  0.9
    78, 'BRIMFIELD 3 ',      13.8, 2,    1,    2, 1,    1.028977,   -6.116296,  1.1,  0.9,  1.1,  0.9
    79, 'BRIMFIELD 4 ',      13.8, 2,    1,    2, 1,    1.028977,   -6.116296,  1.1,  0.9,  1.1,  0.9
    80, 'WELDON 0    ',       115, 1,    1,    5, 1,   1.0475622,    -7.25821,  1.1,  0.9,  1.1,  0.9
    81, 'GIBSON CITY ',       230, 1,    1,    6, 1,    1.038152,   -3.896426,  1.1,  0.9,  1.1,  0.9
    82, 'GIBSON CITY ',       115, 1,    1,    6, 1,   1.0353106,    -4.72467,  1.1,  0.9,  1.1,  0.9
    83, 'MINIER 0    ',       115, 1,    1,    7, 1,   1.0305903,   -5.147124,  1.1,  0.9,  1.1,  0.9
    84, 'HUDSON 0    ',       115, 1,    1,    2, 1,   1.0192369,   -5.836735,  1.1,  0.9,  1.1,  0.9
    85, 'ATHENS 0    ',       115, 1,    1,    4, 1,   1.0241032,   -9.891841,  1.1,  0.9,  1.1,  0.9
    86, 'PEORIA HEIGH',       115, 1,    1,    2, 1,   1.0142895,   -7.633369,  1.1,  0.9,  1.1,  0.9
    87, 'SPRINGFIELD ',       230, 1,    1,    3, 1,   1.0382378,   -9.281203,  1.1,  0.9,  1.1,  0.9
    88, 'SPRINGFIELD ',       115, 1,    1,    3, 1,   1.0367741,  -10.475486,  1.1,  0.9,  1.1,  0.9
    89, 'CLINTON 3 0 ',       115, 1,    1,    7, 1,   1.0367956,   -6.001781,  1.1,  0.9,  1.1,  0.9
    90, 'CLINTON 3 1 ',      13.8, 2,    1,    7, 1,        1.04,    -4.84285,  1.1,  0.9,  1.1,  0.9
    91, 'CLINTON 3 2 ',      13.8, 2,    1,    7, 1,        1.04,   -5.608287,  1.1,  0.9,  1.1,  0.9
    92, 'CLINTON 3 3 ',      13.8, 2,    1,    7, 1,   1.0367956,   -6.001781,  1.1,  0.9,  1.1,  0.9
    93, 'TUSCOLA 2 0 ',       115, 1,    1,    4, 1,   1.0467635,   -7.705981,  1.1,  0.9,  1.1,  0.9
    94, 'TUSCOLA 2 1 ',      13.8, 2,    1,    4, 1,   1.0412845,   -6.897097,  1.1,  0.9,  1.1,  0.9
    95, 'KENNEY 0    ',       115, 1,    1,    7, 1,   1.0452705,   -6.143695,  1.1,  0.9,  1.1,  0.9
    96, 'MANSFIELD 0 ',       115, 1,    1,    7, 1,   1.0399843,   -4.622369,  1.1,  0.9,  1.1,  0.9
    97, 'MANITO 0    ',       115, 1,    1,    2, 1,   1.0266279,   -8.070874,  1.1,  0.9,  1.1,  0.9
    98, 'DUNLAP 0    ',       230, 1,    1,    2, 1,   1.0259732,   -5.693301,  1.1,  0.9,  1.1,  0.9
    99, 'DUNLAP 1    ',       115, 1,    1,    2, 1,    1.021759,   -6.532648,  1.1,  0.9,  1.1,  0.9
   100, 'CHAMPAIGN 3 ',       115, 1,    1,    5, 1,     1.05559,   -7.845164,  1.1,  0.9,  1.1,  0.9
   101, 'PEORIA 7 0  ',       115, 1,    1,    2, 1,   1.0153419,   -7.486883,  1.1,  0.9,  1.1,  0.9
   102, 'ELLSWORTH 1 ',       230, 1,    1,    7, 1,   1.0375884,   -1.855349,  1.1,  0.9,  1.1,  0.9
   103, 'ELLSWORTH 1 ',       115, 1,    1,    7, 1,   1.0361908,   -2.820525,  1.1,  0.9,  1.1,  0.9
   104, 'ELLSWORTH 1 ',      13.8, 2,    1,    7, 1,        1.04,    1.292356,  1.1,  0.9,  1.1,  0.9
   105, 'ELLSWORTH 1 ',      13.8, 2,    1,    7, 1,        1.04,    3.030149,  1.1,  0.9,  1.1,  0.9
   106, 'TOWANDA 0   ',       115, 1,    1,    7, 1,   1.0333053,   -3.587524,  1.1,  0.9,  1.1,  0.9
   107, 'BLOOMINGTON ',       115, 1,    1,    7, 1,   1.0164253,   -5.897801,  1.1,  0.9,  1.1,  0.9
   108, 'PRINCEVILLE ',       115, 1,    1,    2, 1,     1.02631,   -6.590908,  1.1,  0.9,  1.1,  0.9
   109, 'DELAVAN 0   ',       115, 1,    1,    4, 1,   1.0266885,   -7.119037,  1.1,  0.9,  1.1,  0.9
   110, 'PEORIA 6 0  ',       115, 1,    1,    2, 1,   1.0153998,   -7.494693,  1.1,  0.9,  1.1,  0.9
   111, 'SAVOY 0     ',       115, 1,    1,    5, 1,   1.0422996,   -8.069078,  1.1,  0.9,  1.1,  0.9
   112, 'NORMAL 2 0  ',       230, 1,    1,    7, 1,   1.0338868,    -2.38601,  1.1,  0.9,  1.1,  0.9
   113, 'NORMAL 2 1  ',       115, 1,    1,    7, 1,   1.0214787,   -5.246294,  1.1,  0.9,  1.1,  0.9
   114, 'NORMAL 2 2  ',      13.8, 2,    1,    7, 1,   1.0362036,   -2.072597,  1.1,  0.9,  1.1,  0.9
   115, 'NORMAL 2 3  ',      13.8, 2,    1,    7, 1,        1.04,    2.075284,  1.1,  0.9,  1.1,  0.9
   116, 'EAST PEORIA ',       230, 1,    1,    2, 1,   1.0260581,    -5.40757,  1.1,  0.9,  1.1,  0.9
   117, 'EAST PEORIA ',       115, 1,    1,    2, 1,   1.0194057,   -6.761358,  1.1,  0.9,  1.1,  0.9
   118, 'HANNA CITY 0',       115, 1,    1,    2, 1,   1.0220863,   -6.761277,  1.1,  0.9,  1.1,  0.9
   119, 'METAMORA 0  ',       115, 1,    1,    2, 1,   1.0162966,   -7.890283,  1.1,  0.9,  1.1,  0.9
   120, 'GREENVIEW 0 ',       115, 1,    1,    4, 1,   1.0244523,    -9.26074,  1.1,  0.9,  1.1,  0.9
   121, 'CLINTON 2 0 ',       230, 1,    1,    7, 1,   1.0413751,   -2.550667,  1.1,  0.9,  1.1,  0.9
   122, 'CLINTON 2 1 ',       115, 1,    1,    7, 1,   1.0392113,   -3.476706,  1.1,  0.9,  1.1,  0.9
   123, 'BARTONVILLE ',       230, 1,    1,    2, 1,   1.0317706,   -4.799729,  1.1,  0.9,  1.1,  0.9
   124, 'BARTONVILLE ',       115, 1,    1,    2, 1,   1.0241995,   -6.311793,  1.1,  0.9,  1.1,  0.9
   125, 'BARTONVILLE ',      13.8, 2,    1,    2, 1,        1.04,   -2.638002,  1.1,  0.9,  1.1,  0.9
   126, 'BARTONVILLE ',      13.8, 2,    1,    2, 1,        1.04,   -3.433514,  1.1,  0.9,  1.1,  0.9
   127, 'BARTONVILLE ',      13.8, 2,    1,    2, 1,        1.04,   -4.153305,  1.1,  0.9,  1.1,  0.9
   128, 'NORMAL 1 0  ',       230, 1,    1,    7, 1,   1.0336624,   -2.641873,  1.1,  0.9,  1.1,  0.9
   129, 'NORMAL 1 1  ',       115, 1,    1,    7, 1,   1.0199071,   -5.280933,  1.1,  0.9,  1.1,  0.9
   130, 'LEXINGTON 0 ',       115, 1,    1,    7, 1,   1.0308537,   -4.215383,  1.1,  0.9,  1.1,  0.9
   131, 'PEORIA 5 0  ',       115, 1,    1,    2, 1,   1.0159516,   -7.483658,  1.1,  0.9,  1.1,  0.9
   132, 'MORTON 0    ',       115, 1,    1,    2, 1,   1.0142019,   -7.143976,  1.1,  0.9,  1.1,  0.9
   133, 'PEKIN 1 0   ',       230, 1,    1,    2, 1,    1.033428,   -4.376173,  1.1,  0.9,  1.1,  0.9
   134, 'PEKIN 1 1   ',       115, 1,    1,    2, 1,   1.0315652,   -5.231244,  1.1,  0.9,  1.1,  0.9
   135, 'PEKIN 1 2   ',      13.8, 2,    1,    2, 1,        1.04,   -1.987898,  1.1,  0.9,  1.1,  0.9
   136, 'PEKIN 1 3   ',      13.8, 2,    1,    2, 1,        1.04,   -2.419807,  1.1,  0.9,  1.1,  0.9
   137, 'NIANTIC 0   ',       115, 1,    1,    4, 1,   1.0313258,   -9.719095,  1.1,  0.9,  1.1,  0.9
   138, 'COLFAX 0    ',       115, 1,    1,    6, 1,   1.0307923,   -5.699318,  1.1,  0.9,  1.1,  0.9
   139, 'EL PASO 0   ',       115, 1,    1,    2, 1,   1.0214166,   -7.361468,  1.1,  0.9,  1.1,  0.9
   140, 'TREMONT 0   ',       115, 1,    1,    2, 1,   1.0231103,   -6.390899,  1.1,  0.9,  1.1,  0.9
   141, 'PEORIA 4 0  ',       115, 1,    1,    2, 1,   1.0153587,   -7.521902,  1.1,  0.9,  1.1,  0.9
   142, 'PEORIA 3 0  ',       115, 1,    1,    2, 1,   1.0140717,   -7.617783,  1.1,  0.9,  1.1,  0.9
   143, 'CHAMPAIGN 2 ',       115, 1,    1,    5, 1,   1.0372589,   -6.549447,  1.1,  0.9,  1.1,  0.9
   144, 'EUREKA 0    ',       115, 1,    1,    2, 1,   1.0236389,   -5.928282,  1.1,  0.9,  1.1,  0.9
   145, 'CHATHAM 0   ',       115, 1,    1,    3, 1,   1.0320168,  -11.164121,  1.1,  0.9,  1.1,  0.9
   146, 'HOPEDALE 2 0',       115, 1,    1,    7, 1,   1.0331184,   -4.010275,  1.1,  0.9,  1.1,  0.9
   147, 'HOPEDALE 2 1',      13.8, 2,    1,    7, 1,        1.04,    1.000906,  1.1,  0.9,  1.1,  0.9
   148, 'WASHINGTON 0',       115, 1,    1,    2, 1,   1.0102299,   -8.189318,  1.1,  0.9,  1.1,  0.9
   149, 'SPRINGFIELD ',       230, 1,    1,    3, 1,   1.0395559,   -8.879345,  1.1,  0.9,  1.1,  0.9
   150, 'SPRINGFIELD ',       115, 1,    1,    3, 1,    1.039664,   -9.999925,  1.1,  0.9,  1.1,  0.9
   151, 'SPRINGFIELD ',      13.8, 2,    1,    3, 1,        1.04,    -8.34258,  1.1,  0.9,  1.1,  0.9
   152, 'SPRINGFIELD ',      13.8, 2,    1,    3, 1,        1.04,   -7.139644,  1.1,  0.9,  1.1,  0.9
   153, 'SPRINGFIELD ',      13.8, 2,    1,    3, 1,        1.04,   -6.612046,  1.1,  0.9,  1.1,  0.9
   154, 'SPRINGFIELD ',      13.8, 2,    1,    3, 1,        1.04,    -7.61542,  1.1,  0.9,  1.1,  0.9
   155, 'SPRINGFIELD ',      13.8, 2,    1,    3, 1,        1.04,   -7.653539,  1.1,  0.9,  1.1,  0.9
   156, 'PEORIA 2 0  ',       230, 1,    1,    2, 1,   1.0321033,   -4.724707,  1.1,  0.9,  1.1,  0.9
   157, 'PEORIA 2 1  ',       115, 1,    1,    2, 1,   1.0305206,   -5.439245,  1.1,  0.9,  1.1,  0.9
   158, 'MT ZION 0   ',       115, 1,    1,    4, 1,   1.0434577,   -7.900145,  1.1,  0.9,  1.1,  0.9
   159, 'BUFFALO 0   ',       115, 1,    1,    4, 1,   1.0265896,  -10.742416,  1.1,  0.9,  1.1,  0.9
   160, 'SPRINGFIELD ',       115, 1,    1,    4, 1,   1.0311472,  -11.239582,  1.1,  0.9,  1.1,  0.9
   161, 'SPRINGFIELD ',      13.8, 2,    1,    4, 1,   1.0311472,  -11.239582,  1.1,  0.9,  1.1,  0.9
   162, 'CONGERVILLE ',       115, 1,    1,    2, 1,   1.0225791,   -6.221058,  1.1,  0.9,  1.1,  0.9
   163, 'CHAMPAIGN 1 ',       115, 1,    1,    5, 1,   1.0431643,   -7.926244,  1.1,  0.9,  1.1,  0.9
   164, 'CHAMPAIGN 1 ',      13.8, 2,    1,    5, 1,   1.0431643,   -7.926244,  1.1,  0.9,  1.1,  0.9
   165, 'CHAMPAIGN 1 ',      13.8, 2,    1,    5, 1,   1.0431643,   -7.926244,  1.1,  0.9,  1.1,  0.9
   166, 'CHAMPAIGN 1 ',      13.8, 2,    1,    5, 1,   1.0431643,   -7.926244,  1.1,  0.9,  1.1,  0.9
   167, 'CHAMPAIGN 1 ',      13.8, 2,    1,    5, 1,   1.0414716,   -7.628263,  1.1,  0.9,  1.1,  0.9
   168, 'CHAMPAIGN 1 ',      13.8, 2,    1,    5, 1,   1.0431643,   -7.926244,  1.1,  0.9,  1.1,  0.9
   169, 'CHAMPAIGN 1 ',      13.8, 2,    1,    5, 1,   1.0431643,   -7.926244,  1.1,  0.9,  1.1,  0.9
   170, 'CHAMPAIGN 1 ',      13.8, 2,    1,    5, 1,        1.04,   -7.359358,  1.1,  0.9,  1.1,  0.9
   171, 'FISHER 0    ',       115, 1,    1,    6, 1,   1.0293606,   -5.544471,  1.1,  0.9,  1.1,  0.9
   172, 'HOMER 0     ',       115, 1,    1,    5, 1,   1.0446624,   -6.737828,  1.1,  0.9,  1.1,  0.9
   173, 'TUSCOLA 1 0 ',       115, 1,    1,    5, 1,   1.0438694,   -7.824896,  1.1,  0.9,  1.1,  0.9
   174, 'WHITE HEATH ',       115, 1,    1,    5, 1,    1.048556,   -6.975714,  1.1,  0.9,  1.1,  0.9
   175, 'TOLONO 0    ',       115, 1,    1,    5, 1,    1.042508,   -8.051141,  1.1,  0.9,  1.1,  0.9
   176, 'SPRINGFIELD ',       115, 1,    1,    3, 1,    1.034057,  -10.848998,  1.1,  0.9,  1.1,  0.9
   177, 'MACKINAW 0  ',       115, 1,    1,    7, 1,   1.0279083,   -5.445402,  1.1,  0.9,  1.1,  0.9
   178, 'URBANA 1 0  ',       230, 1,    1,    5, 1,   1.0414926,   -4.889523,  1.1,  0.9,  1.1,  0.9
   179, 'URBANA 1 1  ',       115, 1,    1,    5, 1,   1.0462277,   -6.907941,  1.1,  0.9,  1.1,  0.9
   180, 'SAINT JOSEPH',       115, 1,    1,    5, 1,    1.045211,   -7.124937,  1.1,  0.9,  1.1,  0.9
   181, 'SPRINGFIELD ',       115, 1,    1,    4, 1,   1.0333892,  -11.195233,  1.1,  0.9,  1.1,  0.9
   182, 'SPRINGFIELD ',      13.8, 2,    1,    4, 1,        1.04,   -10.37446,  1.1,  0.9,  1.1,  0.9
   183, 'SPRINGFIELD ',      13.8, 2,    1,    4, 1,        1.04,  -10.723282,  1.1,  0.9,  1.1,  0.9
   184, 'MONTICELLO 0',       115, 1,    1,    5, 1,   1.0492205,   -8.289414,  1.1,  0.9,  1.1,  0.9
   185, 'AUBURN 0    ',       115, 1,    1,    3, 1,   1.0341291,  -10.871111,  1.1,  0.9,  1.1,  0.9
   186, 'HOPEDALE 1 0',       115, 1,    1,    2, 1,   1.0294683,   -5.915141,  1.1,  0.9,  1.1,  0.9
   187, 'CLINTON 1 0 ',       230, 1,    1,    7, 1,   1.0411088,    -1.59351,  1.1,  0.9,  1.1,  0.9
   188, 'CLINTON 1 1 ',       115, 1,    1,    7, 1,   1.0422271,   -4.274235,  1.1,  0.9,  1.1,  0.9
   189, 'CLINTON 1 2 ',      13.8, 3,    1,    7, 1,        1.04,           0,  1.1,  0.9,  1.1,  0.9
   190, 'MAHOMET 0   ',       115, 1,    1,    6, 1,   1.0275107,   -5.607695,  1.1,  0.9,  1.1,  0.9
   191, 'VILLA GROVE ',       115, 1,    1,    5, 1,   1.0460774,   -7.762654,  1.1,  0.9,  1.1,  0.9
   192, 'BLOOMINGTON ',       115, 1,    1,    7, 1,   1.0166276,    -5.99268,  1.1,  0.9,  1.1,  0.9
   193, 'PEORIA 1 0  ',       115, 1,    1,    2, 1,   1.0164747,   -7.379588,  1.1,  0.9,  1.1,  0.9
   194, 'SPRINGFIELD ',       115, 1,    1,    3, 1,   1.0400826,  -10.703489,  1.1,  0.9,  1.1,  0.9
   195, 'GIBSON CITY ',       115, 1,    1,    6, 1,   1.0332601,   -5.127426,  1.1,  0.9,  1.1,  0.9
   196, 'GIBSON CITY ',      13.8, 2,    1,    6, 1,   1.0332601,   -5.127426,  1.1,  0.9,  1.1,  0.9
   197, 'GIBSON CITY ',      13.8, 2,    1,    6, 1,   1.0332601,   -5.127426,  1.1,  0.9,  1.1,  0.9
   198, 'MAPLETON 0  ',       115, 1,    1,    2, 1,   1.0232234,   -6.849765,  1.1,  0.9,  1.1,  0.9
   199, 'GIFFORD 0   ',       115, 1,    1,    6, 1,   1.0438791,   -5.721465,  1.1,  0.9,  1.1,  0.9
   200, 'PETERSBURG 0',       115, 1,    1,    4, 1,   1.0259148,   -9.367606,  1.1,  0.9,  1.1,  0.9
0 / END OF BUS DATA, BEGIN LOAD DATA
     2,  1, 1,    1,    2,      7.39,       2.1, 0, 0, 0, 0, 1, 1, 0
     4,  1, 1,    1,    4,       1.7,      0.48, 0, 0, 0, 0, 1, 1, 0
     6,  1, 1,    1,    6,      7.95,      2.26, 0, 0, 0, 0, 1, 1, 0
     8,  1, 1,    1,    2,     23.74,      6.77, 0, 0, 0, 0, 1, 1, 0
    10,  1, 1,    1,    2,     42.68,     12.16, 0, 0, 0, 0, 1, 1, 0
    12,  1, 1,    1,    4,       0.3,      0.09, 0, 0, 0, 0, 1, 1, 0
    13,  1, 1,    1,    4,      2.52,      0.72, 0, 0, 0, 0, 1, 1, 0
    16,  1, 1,    1,    4,     44.76,     12.76, 0, 0, 0, 0, 1, 1, 0
    18,  1, 1,    1,    4,      0.71,       0.2, 0, 0, 0, 0, 1, 1, 0
    19,  1, 1,    1,    4,      0.77,      0.22, 0, 0, 0, 0, 1, 1, 0
    20,  1, 1,    1,    4,      1.13,      0.32, 0, 0, 0, 0, 1, 1, 0
    21,  1, 1,    1,    4,      4.61,      1.31, 0, 0, 0, 0, 1, 1, 0
    23,  1, 1,    1,    4,      1.41,       0.4, 0, 0, 0, 0, 1, 1, 0
    24,  1, 1,    1,    4,       2.4,      0.68, 0, 0, 0, 0, 1, 1, 0
    26,  1, 1,    1,    6,      1.35,      0.39, 0, 0, 0, 0, 1, 1, 0
    28,  1, 1,    1,    4,      2.33,      0.67, 0, 0, 0, 0, 1, 1, 0
    30,  1, 1,    1,    2,     59.09,     16.84, 0, 0, 0, 0, 1, 1, 0
    32,  1, 1,    1,    7,      0.51,      0.15, 0, 0, 0, 0, 1, 1, 0
    33,  1, 1,    1,    7,      6.44,      1.84, 0, 0, 0, 0, 1, 1, 0
    35,  1, 1,    1,    4,     20.76,      5.92, 0, 0, 0, 0, 1, 1, 0
    37,  1, 1,    1,    7,      3.57,      1.02, 0, 0, 0, 0, 1, 1, 0
    38,  1, 1,    1,    7,     29.81,       8.5, 0, 0, 0, 0, 1, 1, 0
    39,  1, 1,    1,    4,      7.41,      2.11, 0, 0, 0, 0, 1, 1, 0
    40,  1, 1,    1,    4,      2.04,      0.58, 0, 0, 0, 0, 1, 1, 0
    41,  1, 1,    1,    5,     38.34,     10.93, 0, 0, 0, 0, 1, 1, 0
    42,  1, 1,    1,    4,     10.62,      3.03, 0, 0, 0, 0, 1, 1, 0
    43,  1, 1,    1,    2,      2.09,      0.59, 0, 0, 0, 0, 1, 1, 0
    44,  1, 1,    1,    4,      4.15,      1.18, 0, 0, 0, 0, 1, 1, 0
    46,  1, 1,    1,    7,      6.34,      1.81, 0, 0, 0, 0, 1, 1, 0
    47,  1, 1,    1,    4,      1.54,      0.44, 0, 0, 0, 0, 1, 1, 0
    48,  1, 1,    1,    6,      1.82,      0.52, 0, 0, 0, 0, 1, 1, 0
    54,  1, 1,    1,    4,      2.66,      0.76, 0, 0, 0, 0, 1, 1, 0
    56,  1, 1,    1,    7,      1.31,      0.37, 0, 0, 0, 0, 1, 1, 0
    57,  1, 1,    1,    4,      2.82,       0.8, 0, 0, 0, 0, 1, 1, 0
    58,  1, 1,    1,    7,      4.23,      1.21, 0, 0, 0, 0, 1, 1, 0
    59,  1, 1,    1,    2,      4.73,      1.35, 0, 0, 0, 0, 1, 1, 0
    60,  1, 1,    1,    2,       3.8,      1.08, 0, 0, 0, 0, 1, 1, 0
    61,  1, 1,    1,    7,     20.55,      5.86, 0, 0, 0, 0, 1, 1, 0
    62,  1, 1,    1,    4,     21.41,       6.1, 0, 0, 0, 0, 1, 1, 0
    63,  1, 1,    1,    4,      7.98,      2.27, 0, 0, 0, 0, 1, 1, 0
    74,  1, 1,    1,    6,     18.76,      5.35, 0, 0, 0, 0, 1, 1, 0
    75,  1, 1,    1,    2,       3.6,      1.03, 0, 0, 0, 0, 1, 1, 0
    80,  1, 1,    1,    5,      1.48,      0.42, 0, 0, 0, 0, 1, 1, 0
    82,  1, 1,    1,    6,       7.6,      2.17, 0, 0, 0, 0, 1, 1, 0
    83,  1, 1,    1,    7,      3.14,      0.89, 0, 0, 0, 0, 1, 1, 0
    84,  1, 1,    1,    2,      3.75,      1.07, 0, 0, 0, 0, 1, 1, 0
    85,  1, 1,    1,    4,      4.83,      1.38, 0, 0, 0, 0, 1, 1, 0
    86,  1, 1,    1,    2,      8.25,      2.35, 0, 0, 0, 0, 1, 1, 0
    88,  1, 1,    1,    3,     49.34,     14.06, 0, 0, 0, 0, 1, 1, 0
    89,  1, 1,    1,    7,     62.85,     17.91, 0, 0, 0, 0, 1, 1, 0
    93,  1, 1,    1,    4,      3.06,      0.87, 0, 0, 0, 0, 1, 1, 0
    95,  1, 1,    1,    7,         3,      0.85, 0, 0, 0, 0, 1, 1, 0
    96,  1, 1,    1,    7,      2.96,      0.84, 0, 0, 0, 0, 1, 1, 0
    97,  1, 1,    1,    2,      7.33,      2.09, 0, 0, 0, 0, 1, 1, 0
    99,  1, 1,    1,    2,     12.17,      3.47, 0, 0, 0, 0, 1, 1, 0
   100,  1, 1,    1,    5,     37.39,     10.66, 0, 0, 0, 0, 1, 1, 0
   101,  1, 1,    1,    2,      0.52,      0.15, 0, 0, 0, 0, 1, 1, 0
   106,  1, 1,    1,    7,      2.06,      0.59, 0, 0, 0, 0, 1, 1, 0
   107,  1, 1,    1,    7,     52.56,     14.98, 0, 0, 0, 0, 1, 1, 0
   108,  1, 1,    1,    2,      9.42,      2.68, 0, 0, 0, 0, 1, 1, 0
   109,  1, 1,    1,    4,      5.16,      1.47, 0, 0, 0, 0, 1, 1, 0
   110,  1, 1,    1,    2,     10.86,      3.09, 0, 0, 0, 0, 1, 1, 0
   111,  1, 1,    1,    5,      8.82,      2.51, 0, 0, 0, 0, 1, 1, 0
   117,  1, 1,    1,    2,     34.08,      9.71, 0, 0, 0, 0, 1, 1, 0
   118,  1, 1,    1,    2,      3.94,      1.12, 0, 0, 0, 0, 1, 1, 0
   119,  1, 1,    1,    2,     17.55,         5, 0, 0, 0, 0, 1, 1, 0
   120,  1, 1,    1,    4,       1.8,      0.51, 0, 0, 0, 0, 1, 1, 0
   122,  1, 1,    1,    7,     15.44,       4.4, 0, 0, 0, 0, 1, 1, 0
   129,  1, 1,    1,    7,     77.24,     22.01, 0, 0, 0, 0, 1, 1, 0
   130,  1, 1,    1,    7,       4.4,      1.25, 0, 0, 0, 0, 1, 1, 0
   131,  1, 1,    1,    2,     30.25,      8.62, 0, 0, 0, 0, 1, 1, 0
   132,  1, 1,    1,    2,     26.96,      7.68, 0, 0, 0, 0, 1, 1, 0
   137,  1, 1,    1,    4,      1.16,      0.33, 0, 0, 0, 0, 1, 1, 0
   138,  1, 1,    1,    6,      2.09,       0.6, 0, 0, 0, 0, 1, 1, 0
   139,  1, 1,    1,    2,      6.84,      1.95, 0, 0, 0, 0, 1, 1, 0
   140,  1, 1,    1,    2,      8.21,      2.34, 0, 0, 0, 0, 1, 1, 0
   141,  1, 1,    1,    2,      1.42,      0.41, 0, 0, 0, 0, 1, 1, 0
   142,  1, 1,    1,    2,     37.26,     10.62, 0, 0, 0, 0, 1, 1, 0
   143,  1, 1,    1,    5,     26.78,      7.63, 0, 0, 0, 0, 1, 1, 0
   144,  1, 1,    1,    2,      9.05,      2.58, 0, 0, 0, 0, 1, 1, 0
   145,  1, 1,    1,    3,     17.54,         5, 0, 0, 0, 0, 1, 1, 0
   148,  1, 1,    1,    2,     32.02,      9.13, 0, 0, 0, 0, 1, 1, 0
   157,  1, 1,    1,    2,     14.76,      4.21, 0, 0, 0, 0, 1, 1, 0
   158,  1, 1,    1,    4,      8.97,      2.56, 0, 0, 0, 0, 1, 1, 0
   159,  1, 1,    1,    4,      1.39,       0.4, 0, 0, 0, 0, 1, 1, 0
   162,  1, 1,    1,    2,      1.45,      0.41, 0, 0, 0, 0, 1, 1, 0
   163,  1, 1,    1,    5,      45.8,     13.05, 0, 0, 0, 0, 1, 1, 0
   171,  1, 1,    1,    6,      7.94,      2.26, 0, 0, 0, 0, 1, 1, 0
   172,  1, 1,    1,    5,      5.38,      1.53, 0, 0, 0, 0, 1, 1, 0
   173,  1, 1,    1,    5,      8.71,      2.48, 0, 0, 0, 0, 1, 1, 0
   174,  1, 1,    1,    5,      2.77,      0.79, 0, 0, 0, 0, 1, 1, 0
   175,  1, 1,    1,    5,      7.31,      2.08, 0, 0, 0, 0, 1, 1, 0
   176,  1, 1,    1,    3,     19.01,      5.42, 0, 0, 0, 0, 1, 1, 0
   177,  1, 1,    1,    7,     11.29,      3.22, 0, 0, 0, 0, 1, 1, 0
   179,  1, 1,    1,    5,     23.61,      6.73, 0, 0, 0, 0, 1, 1, 0
   180,  1, 1,    1,    5,      7.74,      2.21, 0, 0, 0, 0, 1, 1, 0
   181,  1, 1,    1,    4,     47.98,     13.67, 0, 0, 0, 0, 1, 1, 0
   184,  1, 1,    1,    5,     10.69,      3.05, 0, 0, 0, 0, 1, 1, 0
   185,  1, 1,    1,    3,     10.79,      3.07, 0, 0, 0, 0, 1, 1, 0
   186,  1, 1,    1,    2,       2.1,       0.6, 0, 0, 0, 0, 1, 1, 0
   190,  1, 1,    1,    6,     16.79,      4.78, 0, 0, 0, 0, 1, 1, 0
   191,  1, 1,    1,    5,      7.23,      2.06, 0, 0, 0, 0, 1, 1, 0
   192,  1, 1,    1,    7,     52.74,     15.03, 0, 0, 0, 0, 1, 1, 0
   193,  1, 1,    1,    2,     21.99,      6.27, 0, 0, 0, 0, 1, 1, 0
   194,  1, 1,    1,    3,     37.57,     10.71, 0, 0, 0, 0, 1, 1, 0
   198,  1, 1,    1,    2,      5.37,      1.53, 0, 0, 0, 0, 1, 1, 0
   199,  1, 1,    1,    6,      4.26,      1.21, 0, 0, 0, 0, 1, 1, 0
   200,  1, 1,    1,    4,      9.34,      2.66, 0, 0, 0, 0, 1, 1, 0
0 / END OF LOAD DATA, BEGIN FIXED SHUNT DATA
    15, 1, 1,       0,      30
    95, 1, 1,       0,      30
   100, 1, 1,       0,      80
   194, 1, 1,       0,      50
0 / END OF FIXED SHUNT DATA, BEGIN GENERATOR DATA
    49,  1,      1.36,      0.88,      2.11,     -0.55,     1.04, 0,    5.44, 0, 1, 0, 0, 1, 1, 100,      4.53,      1.36, 1, 1, 0, 1, 0, 1, 0, 1, 0, 1
    50,  1,      1.36,      1.18,      2.11,     -0.55,     1.04, 0,    5.44, 0, 1, 0, 0, 1, 1, 100,      4.53,      1.36, 1, 1, 0, 1, 0, 1, 0, 1, 0, 1
    51,  1,      1.36,      0.77,      2.11,     -0.55,     1.04, 0,    5.44, 0, 1, 0, 0, 1, 1, 100,      4.53,      1.36, 1, 1, 0, 1, 0, 1, 0, 1, 0, 1
    52,  1,      1.36,      1.25,      2.11,     -0.55,     1.04, 0,    5.44, 0, 1, 0, 0, 1, 1, 100,      4.53,      1.36, 1, 1, 0, 1, 0, 1, 0, 1, 0, 1
    53,  1,      2.72,      0.79,      4.23,     -1.11,     1.04, 0,   10.88, 0, 1, 0, 0, 1, 1, 100,      9.07,      2.72, 1, 1, 0, 1, 0, 1, 0, 1, 0, 1
    65,  1,      86.5,      0.84,     32.04,    -21.66,     1.04, 0,  180.48, 0, 1, 0, 0, 1, 1, 100,      86.5,      86.5, 1, 1, 0, 1, 0, 1, 0, 1, 1, 1
    67,  1,      1.41,     -0.57,      2.19,     -0.57,     1.04, 0,    5.64, 0, 1, 0, 0, 1, 1, 100,       4.7,      1.41, 1, 1, 0, 1, 0, 1, 0, 1, 0, 1
    68,  1,      8.38,     -0.55,     13.01,     -3.41,     1.04, 0,    33.5, 0, 1, 0, 0, 1, 1, 100,     27.92,      8.38, 1, 1, 0, 1, 0, 1, 0, 1, 0, 1
    69,  1,      8.38,     -1.53,     13.01,     -3.41,     1.04, 0,    33.5, 0, 1, 0, 0, 1, 1, 100,     27.92,      8.38, 1, 1, 0, 1, 0, 1, 0, 1, 0, 1
    70,  1,      8.38,     -0.78,     13.01,     -3.41,     1.04, 0,    33.5, 0, 1, 0, 0, 1, 1, 100,     27.92,      8.38, 1, 1, 0, 1, 0, 1, 0, 1, 0, 1
    71,  1,      8.38,      -1.7,     13.01,     -3.41,     1.04, 0,    33.5, 0, 1, 0, 0, 1, 1, 100,     27.92,      8.38, 1, 1, 0, 1, 0, 1, 0, 1, 0, 1
    72,  1,      8.38,     -1.86,     13.01,     -3.41,     1.04, 0,    33.5, 0, 1, 0, 0, 1, 1, 100,     27.92,      8.38, 1, 1, 0, 1, 0, 1, 0, 1, 0, 1
    73,  1,      8.38,     -1.11,     13.01,     -3.41,     1.04, 0,    33.5, 0, 1, 0, 0, 1, 1, 100,     27.92,      8.38, 1, 1, 0, 1, 0, 1, 0, 1, 0, 1
    76,  1,       1.2,      1.41,      2.04,     -0.44,     1.04, 0,     4.8, 0, 1, 0, 0, 1, 1, 100,         4,       1.2, 1, 1, 0, 1, 0, 1, 0, 1, 0, 1
    77,  1,      0.72,       0.5,      1.22,     -0.27,     1.04, 0,    2.88, 0, 1, 0, 0, 1, 1, 100,       2.4,      0.72, 1, 1, 0, 1, 0, 1, 0, 1, 0, 1
    78,  1,         0,         0,      9.16,        -2,     1.04, 0,    21.6, 0, 1, 0, 0, 1, 0, 100,        18,       5.4, 1, 1, 0, 1, 0, 1, 0, 1, 0, 1
    79,  1,         0,         0,      9.16,        -2,     1.04, 0,    21.6, 0, 1, 0, 0, 1, 0, 100,        18,       5.4, 1, 1, 0, 1, 0, 1, 0, 1, 0, 1
    90,  1,      0.96,      0.13,      1.63,     -0.36,     1.04, 0,    3.84, 0, 1, 0, 0, 1, 1, 100,       3.2,      0.96, 1, 1, 0, 1, 0, 1, 0, 1, 0, 1
    91,  1,       1.5,      0.59,      2.55,     -0.55,     1.04, 0,       6, 0, 1, 0, 0, 1, 1, 100,         5,       1.5, 1, 1, 0, 1, 0, 1, 0, 1, 0, 1
    92,  1,         0,         0,      3.21,      -0.7,     1.04, 0,    7.56, 0, 1, 0, 0, 1, 0, 100,       6.3,      1.89, 1, 1, 0, 1, 0, 1, 0, 1, 0, 1
    94,  1,       5.4,      -2.2,      8.39,      -2.2,     1.04, 0,    21.6, 0, 1, 0, 0, 1, 1, 100,        18,       5.4, 1, 1, 0, 1, 0, 1, 0, 1, 0, 1
   104,  1,      67.6,       3.1,     21.09,    -14.26,     1.04, 0,   118.8, 0, 1, 0, 0, 1, 1, 100,      67.6,      67.6, 1, 1, 0, 1, 0, 1, 0, 1, 1, 1
   105,  1,     154.8,      8.29,     42.17,    -28.51,     1.04, 0,   237.6, 0, 1, 0, 0, 1, 1, 100,     154.8,     154.8, 1, 1, 0, 1, 0, 1, 0, 1, 1, 1
   114,  1,       1.4,      0.36,      0.36,     -0.24,     1.04, 0,    2.04, 0, 1, 0, 0, 1, 1, 100,       1.4,       1.4, 1, 1, 0, 1, 0, 1, 0, 1, 1, 1
   115,  1,     133.5,      12.6,     31.95,     -21.6,     1.04, 0,     180, 0, 1, 0, 0, 1, 1, 100,     133.5,     133.5, 1, 1, 0, 1, 0, 1, 0, 1, 1, 1
   125,  1,     39.02,      7.24,      60.6,    -15.87,     1.04, 0,  156.06, 0, 1, 0, 0, 1, 1, 100,    130.05,     39.02, 1, 1, 0, 1, 0, 1, 0, 1, 0, 1
   126,  1,     39.02,     12.55,      60.6,    -15.87,     1.04, 0,  156.06, 0, 1, 0, 0, 1, 1, 100,    130.05,     39.02, 1, 1, 0, 1, 0, 1, 0, 1, 0, 1
   127,  1,     39.02,     25.99,      60.6,    -15.87,     1.04, 0,  156.06, 0, 1, 0, 0, 1, 1, 100,    130.05,     39.02, 1, 1, 0, 1, 0, 1, 0, 1, 0, 1
   135,  1,    133.92,     21.46,    208.02,    -54.46,     1.04, 0,  535.68, 0, 1, 0, 0, 1, 1, 100,     446.4,    133.92, 1, 1, 0, 1, 0, 1, 0, 1, 0, 1
   136,  1,    133.92,     25.06,    208.02,    -54.46,     1.04, 0,  535.68, 0, 1, 0, 0, 1, 1, 100,     446.4,    133.92, 1, 1, 0, 1, 0, 1, 0, 1, 0, 1
   147,  1,      92.4,      8.79,     21.41,    -14.47,     1.04, 0,   120.6, 0, 1, 0, 0, 1, 1, 100,      92.4,      92.4, 1, 1, 0, 1, 0, 1, 0, 1, 1, 1
   151,  1,      1.62,      0.02,      2.52,     -0.66,     1.04, 0,    6.48, 0, 1, 0, 0, 1, 1, 100,       5.4,      1.62, 1, 1, 0, 1, 0, 1, 0, 1, 0, 1
   152,  1,     23.17,      0.27,     35.99,     -9.42,     1.04, 0,   92.67, 0, 1, 0, 0, 1, 1, 100,     77.22,     23.17, 1, 1, 0, 1, 0, 1, 0, 1, 0, 1
   153,  1,     23.17,      0.02,     35.99,     -9.42,     1.04, 0,   92.67, 0, 1, 0, 0, 1, 1, 100,     77.22,     23.17, 1, 1, 0, 1, 0, 1, 0, 1, 0, 1
   154,  1,     23.17,      0.14,     35.99,     -9.42,     1.04, 0,   92.67, 0, 1, 0, 0, 1, 1, 100,     77.22,     23.17, 1, 1, 0, 1, 0, 1, 0, 1, 0, 1
   155,  1,     23.17,      0.13,     35.99,     -9.42,     1.04, 0,   92.67, 0, 1, 0, 0, 1, 1, 100,     77.22,     23.17, 1, 1, 0, 1, 0, 1, 0, 1, 0, 1
   161,  1,         0,         0,     70.55,    -15.38,     1.04, 0,  166.32, 0, 1, 0, 0, 1, 0, 100,     138.6,     41.58, 1, 1, 0, 1, 0, 1, 0, 1, 0, 1
   164,  1,         0,         0,      6.11,     -1.33,     1.04, 0,    14.4, 0, 1, 0, 0, 1, 0, 100,        12,       3.6, 1, 1, 0, 1, 0, 1, 0, 1, 0, 1
   165,  1,         0,         0,     13.23,     -2.89,     1.04, 0,    31.2, 0, 1, 0, 0, 1, 0, 100,        26,       7.8, 1, 1, 0, 1, 0, 1, 0, 1, 0, 1
   166,  1,         0,         0,      4.78,     -1.04,     1.04, 0,   11.28, 0, 1, 0, 0, 1, 0, 100,       9.4,      2.82, 1, 1, 0, 1, 0, 1, 0, 1, 0, 1
   167,  1,      2.82,     -1.04,      4.78,     -1.04,     1.04, 0,   11.28, 0, 1, 0, 0, 1, 1, 100,       9.4,      2.82, 1, 1, 0, 1, 0, 1, 0, 1, 0, 1
   168,  1,         0,         0,      4.78,     -1.04,     1.04, 0,   11.28, 0, 1, 0, 0, 1, 0, 100,       9.4,      2.82, 1, 1, 0, 1, 0, 1, 0, 1, 0, 1
   169,  1,         0,         0,      4.78,     -1.04,     1.04, 0,   11.28, 0, 1, 0, 0, 1, 0, 100,       9.4,      2.82, 1, 1, 0, 1, 0, 1, 0, 1, 0, 1
   170,  1,      2.82,     -0.99,      4.78,     -1.04,     1.04, 0,   11.28, 0, 1, 0, 0, 1, 1, 100,       9.4,      2.82, 1, 1, 0, 1, 0, 1, 0, 1, 0, 1
   182,  1,      5.25,      2.15,      8.16,     -2.14,     1.04, 0,      21, 0, 1, 0, 0, 1, 1, 100,      17.5,      5.25, 1, 1, 0, 1, 0, 1, 0, 1, 0, 1
   183,  1,      7.98,      5.73,      12.4,     -3.25,     1.04, 0,   31.92, 0, 1, 0, 0, 1, 1, 100,      26.6,      7.98, 1, 1, 0, 1, 0, 1, 0, 1, 0, 1
   189,  1,    384.37,    -24.15,    209.45,    -46.67,     1.04, 0,  682.98, 0, 1, 0, 0, 1, 1, 100,    569.15,    170.75, 1, 1, 0, 1, 0, 1, 0, 1, 0, 1
   196,  1,         0,         0,     34.36,     -7.49,     1.04, 0,      81, 0, 1, 0, 0, 1, 0, 100,      67.5,     20.25, 1, 1, 0, 1, 0, 1, 0, 1, 0, 1
   197,  1,         0,         0,     34.36,     -7.49,     1.04, 0,      81, 0, 1, 0, 0, 1, 0, 100,      67.5,     20.25, 1, 1, 0, 1, 0, 1, 0, 1, 0, 1
0 / END OF GENERATOR DATA, BEGIN BRANCH DATA
     2,      1, 1, 0.000673, 0.003339,        0,     100,       0,       0, 0, 0, 0, 0, 1, 1, 0, 1, 1, 0, 1, 0, 1, 0, 1
     1,    119, 1, 0.018542, 0.119758,  0.02285,   221.1,       0,       0, 0, 0, 0, 0, 1, 1, 0, 1, 1, 0, 1, 0, 1, 0, 1
   124,      1, 1, 0.005615, 0.036268,  0.00692,   221.1,       0,       0, 0, 0, 0, 0, 1, 1, 0, 1, 1, 0, 1, 0, 1, 0, 1
   193,      1, 1, 0.004258, 0.027501,  0.00525,   221.1,       0,       0, 0, 0, 0, 0, 1, 1, 0, 1, 1, 0, 1, 0, 1, 0, 1
     4,      3, 1, 0.000573, 0.003303,        0,     100,       0,       0, 0, 0, 0, 0, 1, 1, 0, 1, 1, 0, 1, 0, 1, 0, 1
    57,      3, 1, 0.008505, 0.058098,  0.00988,   221.1,       0,       0, 0, 0, 0, 0, 1, 1, 0, 1, 1, 0, 1, 0, 1, 0, 1
     3,    137, 1, 0.005889, 0.038035,  0.00726,   221.1,       0,       0, 0, 0, 0, 0, 1, 1, 0, 1, 1, 0, 1, 0, 1, 0, 1
     6,      5, 1, 0.000694, 0.003337,        0,     100,       0,       0, 0, 0, 0, 0, 1, 1, 0, 1, 1, 0, 1, 0, 1, 0, 1
    48,      5, 1, 0.006246, 0.043513,  0.00711,   221.1,       0,       0, 0, 0, 0, 0, 1, 1, 0, 1, 1, 0, 1, 0, 1, 0, 1
     5,     64, 1, 0.007877, 0.054875,  0.00897,   221.1,       0,       0, 0, 0, 0, 0, 1, 1, 0, 1, 1, 0, 1, 0, 1, 0, 1
     8,      7, 1, 0.000634, 0.003189,        0,     100,       0,       0, 0, 0, 0, 0, 1, 1, 0, 1, 1, 0, 1, 0, 1, 0, 1
     7,     86, 1, 0.003756, 0.024259,  0.00463,   221.1,       0,       0, 0, 0, 0, 0, 1, 1, 0, 1, 1, 0, 1, 0, 1, 0, 1
     7,    101, 1, 0.003597, 0.023232,  0.00443,   221.1,       0,       0, 0, 0, 0, 0, 1, 1, 0, 1, 1, 0, 1, 0, 1, 0, 1
     7,    148, 1, 0.008667,  0.05598,  0.01068,   221.1,       0,       0, 0, 0, 0, 0, 1, 1, 0, 1, 1, 0, 1, 0, 1, 0, 1
    10,      9, 1, 0.000585, 0.003967,        0,     100,       0,       0, 0, 0, 0, 0, 1, 1, 0, 1, 1, 0, 1, 0, 1, 0, 1
     9,    124, 1, 0.008069, 0.055123,  0.00938,   221.1,       0,       0, 0, 0, 0, 0, 1, 1, 0, 1, 1, 0, 1, 0, 1, 0, 1
   131,      9, 1, 0.004139, 0.026732,   0.0051,   221.1,       0,       0, 0, 0, 0, 0, 1, 1, 0, 1, 1, 0, 1, 0, 1, 0, 1
     9,    141, 1, 0.004446,  0.03097,  0.00506,   221.1,       0,       0, 0, 0, 0, 0, 1, 1, 0, 1, 1, 0, 1, 0, 1, 0, 1
     9,    193, 1, 0.003695, 0.025244,  0.00429,   221.1,       0,       0, 0, 0, 0, 0, 1, 1, 0, 1, 1, 0, 1, 0, 1, 0, 1
    12,     11, 1, 0.000534, 0.003533,        0,     100,       0,       0, 0, 0, 0, 0, 1, 1, 0, 1, 1, 0, 1, 0, 1, 0, 1
    13,     11, 1, 0.000619, 0.003606,        0,     100,       0,       0, 0, 0, 0, 0, 1, 1, 0, 1, 1, 0, 1, 0, 1, 0, 1
    11,     15, 1, 0.010408,  0.06722,  0.01282,   221.1,       0,       0, 0, 0, 0, 0, 1, 1, 0, 1, 1, 0, 1, 0, 1, 0, 1
    11,     93, 1, 0.018394, 0.128141,  0.02095,   221.1,       0,       0, 0, 0, 0, 0, 1, 1, 0, 1, 1, 0, 1, 0, 1, 0, 1
   158,     11, 1, 0.008519, 0.058199,   0.0099,   221.1,       0,       0, 0, 0, 0, 0, 1, 1, 0, 1, 1, 0, 1, 0, 1, 0, 1
    14,    121, 1, 0.007013, 0.050098,  0.09134,  402.36,       0,       0, 0, 0, 0, 0, 1, 1, 0, 1, 1, 0, 1, 0, 1, 0, 1
    14,    149, 1, 0.009133, 0.065244,  0.11895,  402.36,       0,       0, 0, 0, 0, 0, 1, 1, 0, 1, 1, 0, 1, 0, 1, 0, 1
    16,     15, 1, 0.000553,   0.0032,        0,     100,       0,       0, 0, 0, 0, 0, 1, 1, 0, 1, 1, 0, 1, 0, 1, 0, 1
    18,     17, 1, 0.000503, 0.003926,        0,     100,       0,       0, 0, 0, 0, 0, 1, 1, 0, 1, 1, 0, 1, 0, 1, 0, 1
    19,     17, 1, 0.000514, 0.003079,        0,     100,       0,       0, 0, 0, 0, 0, 1, 1, 0, 1, 1, 0, 1, 0, 1, 0, 1
    20,     17, 1, 0.000623, 0.003339,        0,     100,       0,       0, 0, 0, 0, 0, 1, 1, 0, 1, 1, 0, 1, 0, 1, 0, 1
    21,     17, 1,  0.00062,  0.00394,        0,     100,       0,       0, 0, 0, 0, 0, 1, 1, 0, 1, 1, 0, 1, 0, 1, 0, 1
   109,     17, 1, 0.009789, 0.068198,  0.01115,   221.1,       0,       0, 0, 0, 0, 0, 1, 1, 0, 1, 1, 0, 1, 0, 1, 0, 1
    17,    120, 1, 0.010316, 0.070473,  0.01199,   221.1,       0,       0, 0, 0, 0, 0, 1, 1, 0, 1, 1, 0, 1, 0, 1, 0, 1
    23,     22, 1, 0.000616, 0.003222,        0,     100,       0,       0, 0, 0, 0, 0, 1, 1, 0, 1, 1, 0, 1, 0, 1, 0, 1
    24,     22, 1, 0.000687, 0.003067,        0,     100,       0,       0, 0, 0, 0, 0, 1, 1, 0, 1, 1, 0, 1, 0, 1, 0, 1
    22,     27, 1, 0.011379, 0.073494,  0.01402,   221.1,       0,       0, 0, 0, 0, 0, 1, 1, 0, 1, 1, 0, 1, 0, 1, 0, 1
   158,     22, 1, 0.012701, 0.086769,  0.01476,   221.1,       0,       0, 0, 0, 0, 0, 1, 1, 0, 1, 1, 0, 1, 0, 1, 0, 1
    26,     25, 1,  0.00061, 0.003071,        0,     100,       0,       0, 0, 0, 0, 0, 1, 1, 0, 1, 1, 0, 1, 0, 1, 0, 1
    25,     64, 1, 0.007643, 0.053244,   0.0087,   221.1,       0,       0, 0, 0, 0, 0, 1, 1, 0, 1, 1, 0, 1, 0, 1, 0, 1
   199,     25, 1, 0.009909, 0.064003,  0.01221,   221.1,       0,       0, 0, 0, 0, 0, 1, 1, 0, 1, 1, 0, 1, 0, 1, 0, 1
    28,     27, 1, 0.000587, 0.003964,        0,     100,       0,       0, 0, 0, 0, 0, 1, 1, 0, 1, 1, 0, 1, 0, 1, 0, 1
    27,     93, 1, 0.025172, 0.175362,  0.02867,   221.1,       0,       0, 0, 0, 0, 0, 1, 1, 0, 1, 1, 0, 1, 0, 1, 0, 1
    27,    158, 1, 0.020429, 0.131945,  0.02517,   221.1,       0,       0, 0, 0, 0, 0, 1, 1, 0, 1, 1, 0, 1, 0, 1, 0, 1
    30,     29, 1, 0.000694, 0.003131,        0,     100,       0,       0, 0, 0, 0, 0, 1, 1, 0, 1, 1, 0, 1, 0, 1, 0, 1
   124,     29, 1, 0.005561, 0.038742,  0.00633,   221.1,       0,       0, 0, 0, 0, 0, 1, 1, 0, 1, 1, 0, 1, 0, 1, 0, 1
    29,    140, 1, 0.007895, 0.055004,  0.00899,   221.1,       0,       0, 0, 0, 0, 0, 1, 1, 0, 1, 1, 0, 1, 0, 1, 0, 1
    32,     31, 1, 0.000667, 0.003884,        0,     100,       0,       0, 0, 0, 0, 0, 1, 1, 0, 1, 1, 0, 1, 0, 1, 0, 1
    33,     31, 1, 0.000528, 0.003639,        0,     100,       0,       0, 0, 0, 0, 0, 1, 1, 0, 1, 1, 0, 1, 0, 1, 0, 1
   177,     31, 1, 0.008406,  0.05856,  0.00957,   221.1,       0,       0, 0, 0, 0, 0, 1, 1, 0, 1, 1, 0, 1, 0, 1, 0, 1
   192,     31, 1, 0.008088,  0.05525,   0.0094,   221.1,       0,       0, 0, 0, 0, 0, 1, 1, 0, 1, 1, 0, 1, 0, 1, 0, 1
    35,     34, 1, 0.000575, 0.003674,        0,     100,       0,       0, 0, 0, 0, 0, 1, 1, 0, 1, 1, 0, 1, 0, 1, 0, 1
    34,     54, 1, 0.006268, 0.042819,  0.00729,   221.1,       0,       0, 0, 0, 0, 0, 1, 1, 0, 1, 1, 0, 1, 0, 1, 0, 1
    34,    137, 1, 0.006911, 0.044639,  0.00852,   221.1,       0,       0, 0, 0, 0, 0, 1, 1, 0, 1, 1, 0, 1, 0, 1, 0, 1
    37,     36, 1, 0.000552, 0.003328,        0,     100,       0,       0, 0, 0, 0, 0, 1, 1, 0, 1, 1, 0, 1, 0, 1, 0, 1
    38,     36, 1,  0.00067, 0.003511,        0,     100,       0,       0, 0, 0, 0, 0, 1, 1, 0, 1, 1, 0, 1, 0, 1, 0, 1
    58,     36, 1, 0.010889,  0.07439,  0.01266,   221.1,       0,       0, 0, 0, 0, 0, 1, 1, 0, 1, 1, 0, 1, 0, 1, 0, 1
    83,     36, 1, 0.009615, 0.066986,  0.01095,   221.1,       0,       0, 0, 0, 0, 0, 1, 1, 0, 1, 1, 0, 1, 0, 1, 0, 1
    40,     39, 1, 0.000505, 0.003103,        0,     100,       0,       0, 0, 0, 0, 0, 1, 1, 0, 1, 1, 0, 1, 0, 1, 0, 1
    39,     85, 1, 0.008702, 0.060625,  0.00991,   221.1,       0,       0, 0, 0, 0, 0, 1, 1, 0, 1, 1, 0, 1, 0, 1, 0, 1
   159,     39, 1, 0.007332,  0.05108,  0.00835,   221.1,       0,       0, 0, 0, 0, 0, 1, 1, 0, 1, 1, 0, 1, 0, 1, 0, 1
    41,    100, 1, 0.004595, 0.029676,  0.00566,   221.1,       0,       0, 0, 0, 0, 0, 1, 1, 0, 1, 1, 0, 1, 0, 1, 0, 1
    41,    163, 1, 0.003165, 0.021623,  0.00368,   221.1,       0,       0, 0, 0, 0, 0, 1, 1, 0, 1, 1, 0, 1, 0, 1, 0, 1
    41,    180, 1, 0.009408, 0.060766,  0.01159,   221.1,       0,       0, 0, 0, 0, 0, 1, 1, 0, 1, 1, 0, 1, 0, 1, 0, 1
    44,     42, 1, 0.012256, 0.085383,  0.01396,   221.1,       0,       0, 0, 0, 0, 0, 1, 1, 0, 1, 1, 0, 1, 0, 1, 0, 1
   181,     42, 1, 0.008008,  0.05579,  0.00912,   221.1,       0,       0, 0, 0, 0, 0, 1, 1, 0, 1, 1, 0, 1, 0, 1, 0, 1
    43,     84, 1, 0.007509, 0.051295,  0.00873,   221.1,       0,       0, 0, 0, 0, 0, 1, 1, 0, 1, 1, 0, 1, 0, 1, 0, 1
    43,    132, 1, 0.011052, 0.075503,  0.01285,   221.1,       0,       0, 0, 0, 0, 0, 1, 1, 0, 1, 1, 0, 1, 0, 1, 0, 1
    44,    200, 1, 0.014813, 0.101195,  0.01722,   221.1,       0,       0, 0, 0, 0, 0, 1, 1, 0, 1, 1, 0, 1, 0, 1, 0, 1
    55,     45, 1, 0.002593, 0.018527,  0.03378,  402.36,       0,       0, 0, 0, 0, 0, 1, 1, 0, 1, 1, 0, 1, 0, 1, 0, 1
   102,     45, 1,   0.0029, 0.020715,  0.03777,  402.36,       0,       0, 0, 0, 0, 0, 1, 1, 0, 1, 1, 0, 1, 0, 1, 0, 1
    45,    187, 1, 0.003474, 0.024821,  0.04525,  402.36,       0,       0, 0, 0, 0, 0, 1, 1, 0, 1, 1, 0, 1, 0, 1, 0, 1
    61,     46, 1, 0.006971, 0.048561,  0.00794,   221.1,       0,       0, 0, 0, 0, 0, 1, 1, 0, 1, 1, 0, 1, 0, 1, 0, 1
   122,     46, 1, 0.010129, 0.065419,  0.01248,   221.1,       0,       0, 0, 0, 0, 0, 1, 1, 0, 1, 1, 0, 1, 0, 1, 0, 1
    47,     54, 1, 0.006678, 0.045623,  0.00776,   221.1,       0,       0, 0, 0, 0, 0, 1, 1, 0, 1, 1, 0, 1, 0, 1, 0, 1
    47,     66, 1, 0.007339, 0.047401,  0.00904,   221.1,       0,       0, 0, 0, 0, 0, 1, 1, 0, 1, 1, 0, 1, 0, 1, 0, 1
    48,     74, 1, 0.007959, 0.054369,  0.00925,   221.1,       0,       0, 0, 0, 0, 0, 1, 1, 0, 1, 1, 0, 1, 0, 1, 0, 1
    54,     66, 1, 0.007051, 0.045544,  0.00869,   221.1,       0,       0, 0, 0, 0, 0, 1, 1, 0, 1, 1, 0, 1, 0, 1, 0, 1
    81,     55, 1, 0.005467, 0.039054,   0.0712,  402.36,       0,       0, 0, 0, 0, 0, 1, 1, 0, 1, 1, 0, 1, 0, 1, 0, 1
    55,    102, 1, 0.001246, 0.008902,  0.01623,  402.36,       0,       0, 0, 0, 0, 0, 1, 1, 0, 1, 1, 0, 1, 0, 1, 0, 1
    55,    112, 1, 0.004166, 0.029763,  0.05426,  402.36,       0,       0, 0, 0, 0, 0, 1, 1, 0, 1, 1, 0, 1, 0, 1, 0, 1
    55,    128, 1, 0.003415, 0.024395,  0.04448,  402.36,       0,       0, 0, 0, 0, 0, 1, 1, 0, 1, 1, 0, 1, 0, 1, 0, 1
    56,    103, 1, 0.004282,  0.02983,  0.00488,   221.1,       0,       0, 0, 0, 0, 0, 1, 1, 0, 1, 1, 0, 1, 0, 1, 0, 1
    57,    159, 1,  0.00752, 0.051369,  0.00874,   221.1,       0,       0, 0, 0, 0, 0, 1, 1, 0, 1, 1, 0, 1, 0, 1, 0, 1
    95,     58, 1, 0.009836, 0.063526,  0.01212,   221.1,       0,       0, 0, 0, 0, 0, 1, 1, 0, 1, 1, 0, 1, 0, 1, 0, 1
   177,     58, 1, 0.014049, 0.095972,  0.01633,   221.1,       0,       0, 0, 0, 0, 0, 1, 1, 0, 1, 1, 0, 1, 0, 1, 0, 1
    59,    119, 1, 0.011209, 0.072397,  0.01381,   221.1,       0,       0, 0, 0, 0, 0, 1, 1, 0, 1, 1, 0, 1, 0, 1, 0, 1
    59,    139, 1, 0.009665, 0.062426,  0.01191,   221.1,       0,       0, 0, 0, 0, 0, 1, 1, 0, 1, 1, 0, 1, 0, 1, 0, 1
    60,     97, 1, 0.012274, 0.079279,  0.01512,   221.1,       0,       0, 0, 0, 0, 0, 1, 1, 0, 1, 1, 0, 1, 0, 1, 0, 1
   134,     60, 1, 0.009007, 0.062749,  0.01026,   221.1,       0,       0, 0, 0, 0, 0, 1, 1, 0, 1, 1, 0, 1, 0, 1, 0, 1
    61,    103, 1, 0.006539, 0.045556,  0.00745,   221.1,       0,       0, 0, 0, 0, 0, 1, 1, 0, 1, 1, 0, 1, 0, 1, 0, 1
   159,     62, 1, 0.008634, 0.058979,  0.01003,   221.1,       0,       0, 0, 0, 0, 0, 1, 1, 0, 1, 1, 0, 1, 0, 1, 0, 1
   160,     62, 1, 0.007628, 0.053144,  0.00869,   221.1,       0,       0, 0, 0, 0, 0, 1, 1, 0, 1, 1, 0, 1, 0, 1, 0, 1
    63,     66, 1, 0.011949, 0.083244,  0.01361,   221.1,       0,       0, 0, 0, 0, 0, 1, 1, 0, 1, 1, 0, 1, 0, 1, 0, 1
    63,    184, 1, 0.017963, 0.116023,  0.02214,   221.1,       0,       0, 0, 0, 0, 0, 1, 1, 0, 1, 1, 0, 1, 0, 1, 0, 1
    66,    158, 1, 0.004993, 0.032251,  0.00615,   221.1,       0,       0, 0, 0, 0, 0, 1, 1, 0, 1, 1, 0, 1, 0, 1, 0, 1
    74,    190, 1, 0.008894,  0.06076,  0.01034,   221.1,       0,       0, 0, 0, 0, 0, 1, 1, 0, 1, 1, 0, 1, 0, 1, 0, 1
   108,     75, 1, 0.010988, 0.070969,  0.01354,   221.1,       0,       0, 0, 0, 0, 0, 1, 1, 0, 1, 1, 0, 1, 0, 1, 0, 1
    75,    157, 1, 0.013487, 0.087112,  0.01662,   221.1,       0,       0, 0, 0, 0, 0, 1, 1, 0, 1, 1, 0, 1, 0, 1, 0, 1
    80,    100, 1, 0.021463, 0.149525,  0.02444,   221.1,       0,       0, 0, 0, 0, 0, 1, 1, 0, 1, 1, 0, 1, 0, 1, 0, 1
    80,    143, 1, 0.020594,  0.14347,  0.02345,   221.1,       0,       0, 0, 0, 0, 0, 1, 1, 0, 1, 1, 0, 1, 0, 1, 0, 1
    81,    178, 1, 0.006598, 0.047137,  0.08594,  402.36,       0,       0, 0, 0, 0, 0, 1, 1, 0, 1, 1, 0, 1, 0, 1, 0, 1
    82,    195, 1, 0.003845, 0.026265,  0.00447,   221.1,       0,       0, 0, 0, 0, 0, 1, 1, 0, 1, 1, 0, 1, 0, 1, 0, 1
    83,    146, 1, 0.005382, 0.036767,  0.00626,   221.1,       0,       0, 0, 0, 0, 0, 1, 1, 0, 1, 1, 0, 1, 0, 1, 0, 1
    83,    186, 1,  0.00792, 0.055174,  0.00902,   221.1,       0,       0, 0, 0, 0, 0, 1, 1, 0, 1, 1, 0, 1, 0, 1, 0, 1
    84,    113, 1, 0.006652,  0.04544,  0.00773,   221.1,       0,       0, 0, 0, 0, 0, 1, 1, 0, 1, 1, 0, 1, 0, 1, 0, 1
    85,    120, 1, 0.007786, 0.050291,  0.00959,   221.1,       0,       0, 0, 0, 0, 0, 1, 1, 0, 1, 1, 0, 1, 0, 1, 0, 1
    86,    101, 1,  0.00512, 0.033072,  0.00631,   221.1,       0,       0, 0, 0, 0, 0, 1, 1, 0, 1, 1, 0, 1, 0, 1, 0, 1
   142,     86, 1, 0.003387, 0.023141,  0.00394,   221.1,       0,       0, 0, 0, 0, 0, 1, 1, 0, 1, 1, 0, 1, 0, 1, 0, 1
    86,    193, 1, 0.006606, 0.042664,  0.00814,   221.1,       0,       0, 0, 0, 0, 0, 1, 1, 0, 1, 1, 0, 1, 0, 1, 0, 1
   149,     87, 1, 0.001621, 0.011579,  0.02111,  402.36,       0,       0, 0, 0, 0, 0, 1, 1, 0, 1, 1, 0, 1, 0, 1, 0, 1
    88,    150, 1,  0.00557, 0.035973,  0.00686,   221.1,       0,       0, 0, 0, 0, 0, 1, 1, 0, 1, 1, 0, 1, 0, 1, 0, 1
   176,     88, 1, 0.003859, 0.024922,  0.00475,   221.1,       0,       0, 0, 0, 0, 0, 1, 1, 0, 1, 1, 0, 1, 0, 1, 0, 1
    88,    194, 1, 0.004258, 0.029088,  0.00495,   221.1,       0,       0, 0, 0, 0, 0, 1, 1, 0, 1, 1, 0, 1, 0, 1, 0, 1
    89,     95, 1, 0.008734, 0.056409,  0.01076,   221.1,       0,       0, 0, 0, 0, 0, 1, 1, 0, 1, 1, 0, 1, 0, 1, 0, 1
   188,     89, 1,  0.00805, 0.051996,  0.00992,   221.1,       0,       0, 0, 0, 0, 0, 1, 1, 0, 1, 1, 0, 1, 0, 1, 0, 1
    93,    191, 1, 0.022088, 0.142662,  0.02722,   221.1,       0,       0, 0, 0, 0, 0, 1, 1, 0, 1, 1, 0, 1, 0, 1, 0, 1
   122,     96, 1,  0.01062, 0.073986,  0.01209,   221.1,       0,       0, 0, 0, 0, 0, 1, 1, 0, 1, 1, 0, 1, 0, 1, 0, 1
    96,    143, 1, 0.015858, 0.102423,  0.01954,   221.1,       0,       0, 0, 0, 0, 0, 1, 1, 0, 1, 1, 0, 1, 0, 1, 0, 1
    96,    188, 1, 0.010903, 0.070421,  0.01343,   221.1,       0,       0, 0, 0, 0, 0, 1, 1, 0, 1, 1, 0, 1, 0, 1, 0, 1
    97,    200, 1,  0.01318, 0.085125,  0.01624,   221.1,       0,       0, 0, 0, 0, 0, 1, 1, 0, 1, 1, 0, 1, 0, 1, 0, 1
    98,    123, 1,   0.0047, 0.033574,  0.06121,  402.36,       0,       0, 0, 0, 0, 0, 1, 1, 0, 1, 1, 0, 1, 0, 1, 0, 1
    99,    142, 1, 0.007605, 0.052982,  0.00866,   221.1,       0,       0, 0, 0, 0, 0, 1, 1, 0, 1, 1, 0, 1, 0, 1, 0, 1
   100,    174, 1, 0.010698, 0.074531,  0.01218,   221.1,       0,       0, 0, 0, 0, 0, 1, 1, 0, 1, 1, 0, 1, 0, 1, 0, 1
   100,    179, 1, 0.007093, 0.049413,  0.00808,   221.1,       0,       0, 0, 0, 0, 0, 1, 1, 0, 1, 1, 0, 1, 0, 1, 0, 1
   100,    184, 1, 0.012745,  0.08879,  0.01451,   221.1,       0,       0, 0, 0, 0, 0, 1, 1, 0, 1, 1, 0, 1, 0, 1, 0, 1
   110,    101, 1,  0.00196, 0.012657,  0.00241,   221.1,       0,       0, 0, 0, 0, 0, 1, 1, 0, 1, 1, 0, 1, 0, 1, 0, 1
   101,    117, 1, 0.005245, 0.035833,   0.0061,   221.1,       0,       0, 0, 0, 0, 0, 1, 1, 0, 1, 1, 0, 1, 0, 1, 0, 1
   101,    141, 1, 0.003144, 0.020305,  0.00387,   221.1,       0,       0, 0, 0, 0, 0, 1, 1, 0, 1, 1, 0, 1, 0, 1, 0, 1
   102,    128, 1,   0.0027, 0.019292,  0.03517,  402.36,       0,       0, 0, 0, 0, 0, 1, 1, 0, 1, 1, 0, 1, 0, 1, 0, 1
   103,    106, 1, 0.007749, 0.053987,  0.00883,   221.1,       0,       0, 0, 0, 0, 0, 1, 1, 0, 1, 1, 0, 1, 0, 1, 0, 1
   130,    106, 1, 0.006991, 0.047761,  0.00813,   221.1,       0,       0, 0, 0, 0, 0, 1, 1, 0, 1, 1, 0, 1, 0, 1, 0, 1
   107,    113, 1, 0.006748, 0.046101,  0.00784,   221.1,       0,       0, 0, 0, 0, 0, 1, 1, 0, 1, 1, 0, 1, 0, 1, 0, 1
   107,    129, 1, 0.005168, 0.035307,  0.00601,   221.1,       0,       0, 0, 0, 0, 0, 1, 1, 0, 1, 1, 0, 1, 0, 1, 0, 1
   192,    107, 1, 0.003939, 0.025441,  0.00485,   221.1,       0,       0, 0, 0, 0, 0, 1, 1, 0, 1, 1, 0, 1, 0, 1, 0, 1
   108,    198, 1, 0.024792, 0.160126,  0.03055,   221.1,       0,       0, 0, 0, 0, 0, 1, 1, 0, 1, 1, 0, 1, 0, 1, 0, 1
   186,    109, 1, 0.008774, 0.059942,   0.0102,   221.1,       0,       0, 0, 0, 0, 0, 1, 1, 0, 1, 1, 0, 1, 0, 1, 0, 1
   110,    193, 1, 0.003444, 0.022243,  0.00424,   221.1,       0,       0, 0, 0, 0, 0, 1, 1, 0, 1, 1, 0, 1, 0, 1, 0, 1
   163,    111, 1, 0.005281, 0.034111,  0.00651,   221.1,       0,       0, 0, 0, 0, 0, 1, 1, 0, 1, 1, 0, 1, 0, 1, 0, 1
   111,    175, 1,  0.00795, 0.055386,  0.00905,   221.1,       0,       0, 0, 0, 0, 0, 1, 1, 0, 1, 1, 0, 1, 0, 1, 0, 1
   128,    112, 1, 0.001295, 0.009255,  0.01687,  402.36,       0,       0, 0, 0, 0, 0, 1, 1, 0, 1, 1, 0, 1, 0, 1, 0, 1
   113,    192, 1, 0.005418, 0.034995,  0.00668,   221.1,       0,       0, 0, 0, 0, 0, 1, 1, 0, 1, 1, 0, 1, 0, 1, 0, 1
   133,    116, 1,  0.00389, 0.027793,  0.05067,  402.36,       0,       0, 0, 0, 0, 0, 1, 1, 0, 1, 1, 0, 1, 0, 1, 0, 1
   117,    132, 1, 0.011912, 0.082984,  0.01357,   221.1,       0,       0, 0, 0, 0, 0, 1, 1, 0, 1, 1, 0, 1, 0, 1, 0, 1
   117,    162, 1,  0.01617, 0.104442,  0.01993,   221.1,       0,       0, 0, 0, 0, 0, 1, 1, 0, 1, 1, 0, 1, 0, 1, 0, 1
   131,    118, 1,  0.00718, 0.046377,  0.00885,   221.1,       0,       0, 0, 0, 0, 0, 1, 1, 0, 1, 1, 0, 1, 0, 1, 0, 1
   118,    134, 1, 0.011598,   0.0808,  0.01321,   221.1,       0,       0, 0, 0, 0, 0, 1, 1, 0, 1, 1, 0, 1, 0, 1, 0, 1
   118,    198, 1, 0.009487, 0.064809,  0.01103,   221.1,       0,       0, 0, 0, 0, 0, 1, 1, 0, 1, 1, 0, 1, 0, 1, 0, 1
   121,    178, 1, 0.008903, 0.063604,  0.11596,  402.36,       0,       0, 0, 0, 0, 0, 1, 1, 0, 1, 1, 0, 1, 0, 1, 0, 1
   187,    121, 1, 0.001063, 0.007593,  0.01384,  402.36,       0,       0, 0, 0, 0, 0, 1, 1, 0, 1, 1, 0, 1, 0, 1, 0, 1
   123,    133, 1, 0.001459, 0.010423,    0.019,  402.36,       0,       0, 0, 0, 0, 0, 1, 1, 0, 1, 1, 0, 1, 0, 1, 0, 1
   156,    123, 1, 0.001117, 0.007981,  0.01455,  402.36,       0,       0, 0, 0, 0, 0, 1, 1, 0, 1, 1, 0, 1, 0, 1, 0, 1
   124,    193, 1, 0.006577,  0.04582,  0.00749,   221.1,       0,       0, 0, 0, 0, 0, 1, 1, 0, 1, 1, 0, 1, 0, 1, 0, 1
   128,    133, 1, 0.009554, 0.068257,  0.12444,  402.36,       0,       0, 0, 0, 0, 0, 1, 1, 0, 1, 1, 0, 1, 0, 1, 0, 1
   130,    144, 1, 0.022678, 0.157988,  0.02583,   221.1,       0,       0, 0, 0, 0, 0, 1, 1, 0, 1, 1, 0, 1, 0, 1, 0, 1
   156,    133, 1, 0.001958, 0.013985,   0.0255,  402.36,       0,       0, 0, 0, 0, 0, 1, 1, 0, 1, 1, 0, 1, 0, 1, 0, 1
   134,    140, 1, 0.010445, 0.071357,  0.01214,   221.1,       0,       0, 0, 0, 0, 0, 1, 1, 0, 1, 1, 0, 1, 0, 1, 0, 1
   134,    186, 1, 0.014463, 0.093412,  0.01782,   221.1,       0,       0, 0, 0, 0, 0, 1, 1, 0, 1, 1, 0, 1, 0, 1, 0, 1
   138,    139, 1, 0.026477, 0.184455,  0.03015,   221.1,       0,       0, 0, 0, 0, 0, 1, 1, 0, 1, 1, 0, 1, 0, 1, 0, 1
   138,    195, 1, 0.008728,  0.05637,  0.01075,   221.1,       0,       0, 0, 0, 0, 0, 1, 1, 0, 1, 1, 0, 1, 0, 1, 0, 1
   141,    148, 1,  0.01019, 0.065817,  0.01256,   221.1,       0,       0, 0, 0, 0, 0, 1, 1, 0, 1, 1, 0, 1, 0, 1, 0, 1
   141,    193, 1, 0.002896, 0.018702,  0.00357,   221.1,       0,       0, 0, 0, 0, 0, 1, 1, 0, 1, 1, 0, 1, 0, 1, 0, 1
   162,    144, 1, 0.006962, 0.048504,  0.00793,   221.1,       0,       0, 0, 0, 0, 0, 1, 1, 0, 1, 1, 0, 1, 0, 1, 0, 1
   145,    176, 1, 0.008799, 0.060111,  0.01023,   221.1,       0,       0, 0, 0, 0, 0, 1, 1, 0, 1, 1, 0, 1, 0, 1, 0, 1
   185,    145, 1, 0.010839, 0.075509,  0.01234,   221.1,       0,       0, 0, 0, 0, 0, 1, 1, 0, 1, 1, 0, 1, 0, 1, 0, 1
   146,    177, 1, 0.011064,  0.07708,   0.0126,   221.1,       0,       0, 0, 0, 0, 0, 1, 1, 0, 1, 1, 0, 1, 0, 1, 0, 1
   185,    150, 1, 0.013458, 0.091934,  0.01564,   221.1,       0,       0, 0, 0, 0, 0, 1, 1, 0, 1, 1, 0, 1, 0, 1, 0, 1
   194,    150, 1, 0.003138, 0.021435,  0.00365,   221.1,       0,       0, 0, 0, 0, 0, 1, 1, 0, 1, 1, 0, 1, 0, 1, 0, 1
   160,    181, 1, 0.004296, 0.029345,  0.00499,   221.1,       0,       0, 0, 0, 0, 0, 1, 1, 0, 1, 1, 0, 1, 0, 1, 0, 1
   163,    179, 1,  0.00579, 0.039557,  0.00673,   221.1,       0,       0, 0, 0, 0, 0, 1, 1, 0, 1, 1, 0, 1, 0, 1, 0, 1
   171,    190, 1, 0.009866,   0.0674,  0.01147,   221.1,       0,       0, 0, 0, 0, 0, 1, 1, 0, 1, 1, 0, 1, 0, 1, 0, 1
   195,    171, 1, 0.011644, 0.081116,  0.01326,   221.1,       0,       0, 0, 0, 0, 0, 1, 1, 0, 1, 1, 0, 1, 0, 1, 0, 1
   180,    172, 1, 0.015296, 0.106558,  0.01742,   221.1,       0,       0, 0, 0, 0, 0, 1, 1, 0, 1, 1, 0, 1, 0, 1, 0, 1
   199,    172, 1, 0.024005, 0.155042,  0.02958,   221.1,       0,       0, 0, 0, 0, 0, 1, 1, 0, 1, 1, 0, 1, 0, 1, 0, 1
   173,    174, 1, 0.015373, 0.099293,  0.01894,   221.1,       0,       0, 0, 0, 0, 0, 1, 1, 0, 1, 1, 0, 1, 0, 1, 0, 1
   173,    175, 1, 0.008572, 0.055363,  0.01056,   221.1,       0,       0, 0, 0, 0, 0, 1, 1, 0, 1, 1, 0, 1, 0, 1, 0, 1
   174,    188, 1, 0.017952,  0.12264,  0.02087,   221.1,       0,       0, 0, 0, 0, 0, 1, 1, 0, 1, 1, 0, 1, 0, 1, 0, 1
   180,    191, 1, 0.026393, 0.183866,  0.03006,   221.1,       0,       0, 0, 0, 0, 0, 1, 1, 0, 1, 1, 0, 1, 0, 1, 0, 1
   180,    199, 1, 0.012185, 0.078698,  0.01501,   221.1,       0,       0, 0, 0, 0, 0, 1, 1, 0, 1, 1, 0, 1, 0, 1, 0, 1
   181,    194, 1, 0.004395, 0.028384,  0.00542,   221.1,       0,       0, 0, 0, 0, 0, 1, 1, 0, 1, 1, 0, 1, 0, 1, 0, 1
0 / END OF BRANCH DATA, BEGIN TRANSFORMER DATA
    15,     14, 0, 1, 1, 1, 1, 0, 0, 2, '            ', 1, 1, 1, 0, 1, 0, 1, 0, 1, '            '
0.000637, 0.027526, 100
    1, 0,     0,     300,       0,       0, 0, 0, 1.1, 0.9, 1.1, 0.9, 33, 0, 0, 0, 0
    1, 0
    46,     45, 0, 1, 1, 1, 1, 0, 0, 2, '            ', 1, 1, 1, 0, 1, 0, 1, 0, 1, '            '
0.000936, 0.049195, 100
    1, 0,     0,     160,       0,       0, 0, 0, 1.1, 0.9, 1.1, 0.9, 33, 0, 0, 0, 0
    1, 0
    49,     48, 0, 1, 1, 1, 1, 0, 0, 2, '            ', 1, 1, 1, 0, 1, 0, 1, 0, 1, '            '
0.027149, 0.532021, 100
    1, 0,     0,    28.9,       0,       0, 0, 0, 1.1, 0.9, 1.1, 0.9, 33, 0, 0, 0, 0
    1, 0
    50,     48, 0, 1, 1, 1, 1, 0, 0, 2, '            ', 1, 1, 1, 0, 1, 0, 1, 0, 1, '            '
0.021719, 0.404167, 100
    1, 0,     0,    28.7,       0,       0, 0, 0, 1.1, 0.9, 1.1, 0.9, 33, 0, 0, 0, 0
    1, 0
    51,     48, 0, 1, 1, 1, 1, 0, 0, 2, '            ', 1, 1, 1, 0, 1, 0, 1, 0, 1, '            '
0.027149, 0.612711, 100
    1, 0,     0,    24.3,       0,       0, 0, 0, 1.1, 0.9, 1.1, 0.9, 33, 0, 0, 0, 0
    1, 0
    52,     48, 0, 1, 1, 1, 1, 0, 0, 2, '            ', 1, 1, 1, 0, 1, 0, 1, 0, 1, '            '
0.021719, 0.379817, 100
    1, 0,     0,    24.3,       0,       0, 0, 0, 1.1, 0.9, 1.1, 0.9, 33, 0, 0, 0, 0
    1, 0
    53,     48, 0, 1, 1, 1, 1, 0, 0, 2, '            ', 1, 1, 1, 0, 1, 0, 1, 0, 1, '            '
0.02121, 0.576549, 100
    1, 0,     0,    35.3,       0,       0, 0, 0, 1.1, 0.9, 1.1, 0.9, 33, 0, 0, 0, 0
    1, 0
    56,     55, 0, 1, 1, 1, 1, 0, 0, 2, '            ', 1, 1, 1, 0, 1, 0, 1, 0, 1, '            '
0.005152, 0.124653, 100
    1, 0,     0,     160,       0,       0, 0, 0, 1.1, 0.9, 1.1, 0.9, 33, 0, 0, 0, 0
    1, 0
    65,     64, 0, 1, 1, 1, 1, 0, 0, 2, '            ', 1, 1, 1, 0, 1, 0, 1, 0, 1, '            '
0.00128, 0.10157, 100
    1, 0,     0,   195.5,       0,       0, 0, 0, 1.1, 0.9, 1.1, 0.9, 33, 0, 0, 0, 0
    1, 0
    67,     66, 0, 1, 1, 1, 1, 0, 0, 2, '            ', 1, 1, 1, 0, 1, 0, 1, 0, 1, '            '
0.020951, 0.144786, 100
    1, 0,     0,      30,       0,       0, 0, 0, 1.1, 0.9, 1.1, 0.9, 33, 0, 0, 0, 0
    1, 0
    68,     66, 0, 1, 1, 1, 1, 0, 0, 2, '            ', 1, 1, 1, 0, 1, 0, 1, 0, 1, '            '
0.00689, 0.264997, 100
    1, 0,     0,      73,       0,       0, 0, 0, 1.1, 0.9, 1.1, 0.9, 33, 0, 0, 0, 0
    1, 0
    69,     66, 0, 1, 1, 1, 1, 0, 0, 2, '            ', 1, 1, 1, 0, 1, 0, 1, 0, 1, '            '
0.00441, 0.09499, 100
    1, 0,     0,    70.5,       0,       0, 0, 0, 1.1, 0.9, 1.1, 0.9, 33, 0, 0, 0, 0
    1, 0
    70,     66, 0, 1, 1, 1, 1, 0, 0, 2, '            ', 1, 1, 1, 0, 1, 0, 1, 0, 1, '            '
0.00689, 0.199449, 100
    1, 0,     0,    70.5,       0,       0, 0, 0, 1.1, 0.9, 1.1, 0.9, 33, 0, 0, 0, 0
    1, 0
...